<?xml version="1.0" encoding="UTF-8"?>

<!-- generated on 12/12/20 15:56:00 by Eclipse SUMO netedit Version 1.8.0
<configuration xmlns:xsi="http://www.w3.org/2001/XMLSchema-instance" xsi:noNamespaceSchemaLocation="http://sumo.dlr.de/xsd/netconvertConfiguration.xsd">

    <output>
        <output-file value="C:\Users\manhd\car-based\traffic-network.net.xml"/>
    </output>

    <processing>
        <offset.disable-normalization value="true"/>
    </processing>

    <junctions>
        <no-turnarounds value="true"/>
    </junctions>

    <netedit>
        <route-files value="C:\Users\manhd\car-based\traffic_network_1.rou.xml"/>
    </netedit>

    <report>
        <aggregate-warnings value="5"/>
    </report>

</configuration>
-->

<net version="1.6" junctionCornerDetail="5" limitTurnSpeed="5.50" xmlns:xsi="http://www.w3.org/2001/XMLSchema-instance" xsi:noNamespaceSchemaLocation="http://sumo.dlr.de/xsd/net_file.xsd">

    <location netOffset="0.00,0.00" convBoundary="-88.00,-102.84,171.21,112.90" origBoundary="10000000000.00,10000000000.00,-10000000000.00,-10000000000.00" projParameter="!"/>

    <edge id=":gneJ0_0" function="internal">
        <lane id=":gneJ0_0_0" index="0" speed="6.82" length="9.36" shape="10.41,56.54 7.99,56.92 6.19,58.02 5.02,59.85 4.46,62.41"/>
    </edge>
    <edge id=":gneJ0_1" function="internal">
        <lane id=":gneJ0_1_0" index="0" speed="13.89" length="14.72" shape="10.41,56.54 -4.30,56.24"/>
    </edge>
    <edge id=":gneJ0_2" function="internal">
        <lane id=":gneJ0_2_0" index="0" speed="8.39" length="6.01" shape="10.41,56.54 6.69,55.99 4.76,54.83"/>
    </edge>
    <edge id=":gneJ0_12" function="internal">
        <lane id=":gneJ0_12_0" index="0" speed="8.39" length="8.52" shape="4.76,54.83 3.89,54.30 2.02,51.46 1.07,47.47"/>
    </edge>
    <edge id=":gneJ0_3" function="internal">
        <lane id=":gneJ0_3_0" index="0" speed="6.98" length="9.73" shape="4.26,47.14 4.89,49.86 6.12,51.80 7.95,52.96 10.39,53.34"/>
    </edge>
    <edge id=":gneJ0_4" function="internal">
        <lane id=":gneJ0_4_0" index="0" speed="13.89" length="15.30" shape="4.26,47.14 4.57,50.92 4.71,54.77 4.68,58.62 4.46,62.41"/>
    </edge>
    <edge id=":gneJ0_5" function="internal">
        <lane id=":gneJ0_5_0" index="0" speed="7.76" length="14.79" shape="4.26,47.14 4.10,51.28 2.62,54.17 -0.18,55.83 -4.30,56.24"/>
    </edge>
    <edge id=":gneJ0_6" function="internal">
        <lane id=":gneJ0_6_0" index="0" speed="6.21" length="9.05" shape="-4.16,53.05 -1.64,52.79 0.07,51.78 0.98,50.01 1.07,47.47"/>
    </edge>
    <edge id=":gneJ0_7" function="internal">
        <lane id=":gneJ0_7_0" index="0" speed="13.89" length="14.56" shape="-4.16,53.05 10.39,53.34"/>
    </edge>
    <edge id=":gneJ0_8" function="internal">
        <lane id=":gneJ0_8_0" index="0" speed="8.01" length="5.91" shape="-4.16,53.05 -0.11,53.78 1.39,54.76"/>
    </edge>
    <edge id=":gneJ0_13" function="internal">
        <lane id=":gneJ0_13_0" index="0" speed="8.01" length="8.74" shape="1.39,54.76 2.68,55.59 4.20,58.47 4.46,62.41"/>
    </edge>
    <edge id=":gneJ0_9" function="internal">
        <lane id=":gneJ0_9_0" index="0" speed="6.52" length="9.34" shape="1.27,62.15 1.10,59.66 0.11,57.85 -1.69,56.71 -4.30,56.24"/>
    </edge>
    <edge id=":gneJ0_10" function="internal">
        <lane id=":gneJ0_10_0" index="0" speed="13.89" length="14.70" shape="1.27,62.15 1.49,58.45 1.52,54.81 1.38,51.16 1.07,47.47"/>
    </edge>
    <edge id=":gneJ0_11" function="internal">
        <lane id=":gneJ0_11_0" index="0" speed="8.27" length="14.19" shape="1.27,62.15 2.12,58.31 3.92,55.56 6.68,53.91 10.39,53.34"/>
    </edge>
    <edge id=":gneJ1_0" function="internal">
        <lane id=":gneJ1_0_0" index="0" speed="13.89" length="14.35" shape="105.87,56.10 91.52,56.08"/>
    </edge>
    <edge id=":gneJ1_1" function="internal">
        <lane id=":gneJ1_1_0" index="0" speed="7.92" length="5.87" shape="105.87,56.10 101.95,55.51 100.33,54.49"/>
    </edge>
    <edge id=":gneJ1_6" function="internal">
        <lane id=":gneJ1_6_0" index="0" speed="7.92" length="8.50" shape="100.33,54.49 99.22,53.79 97.68,50.96 97.33,47.01"/>
    </edge>
    <edge id=":gneJ1_2" function="internal">
        <lane id=":gneJ1_2_0" index="0" speed="6.41" length="9.04" shape="100.52,47.19 100.74,49.67 101.71,51.45 103.43,52.53 105.89,52.90"/>
    </edge>
    <edge id=":gneJ1_3" function="internal">
        <lane id=":gneJ1_3_0" index="0" speed="8.20" length="14.25" shape="100.52,47.19 99.78,51.06 98.03,53.84 95.28,55.51 91.52,56.08"/>
    </edge>
    <edge id=":gneJ1_4" function="internal">
        <lane id=":gneJ1_4_0" index="0" speed="6.74" length="9.31" shape="91.50,52.88 93.93,52.51 95.71,51.40 96.85,49.57 97.33,47.01"/>
    </edge>
    <edge id=":gneJ1_5" function="internal">
        <lane id=":gneJ1_5_0" index="0" speed="13.89" length="14.39" shape="91.50,52.88 105.89,52.90"/>
    </edge>
    <edge id=":gneJ3_0" function="internal">
        <lane id=":gneJ3_0_0" index="0" speed="6.07" length="8.57" shape="100.03,-43.74 102.43,-43.61 104.09,-42.72 105.03,-41.08 105.24,-38.70"/>
    </edge>
    <edge id=":gneJ3_1" function="internal">
        <lane id=":gneJ3_1_0" index="0" speed="3.90" length="2.86" shape="102.05,-38.87 101.98,-39.67 101.66,-40.21 101.11,-40.51 100.31,-40.55"/>
    </edge>
    <edge id=":gneJ5_0" function="internal">
        <lane id=":gneJ5_0_0" index="0" speed="6.85" length="9.42" shape="-6.62,-25.45 -7.23,-27.97 -8.47,-29.76 -10.34,-30.81 -12.83,-31.14"/>
    </edge>
    <edge id=":gneJ5_1" function="internal">
        <lane id=":gneJ5_1_0" index="0" speed="13.89" length="15.05" shape="-6.62,-25.45 -6.94,-29.19 -7.14,-32.96 -7.21,-36.73 -7.15,-40.48"/>
    </edge>
    <edge id=":gneJ5_2" function="internal">
        <lane id=":gneJ5_2_0" index="0" speed="8.04" length="14.54" shape="-6.62,-25.45 -6.45,-29.37 -5.02,-32.28 -2.32,-34.19 1.65,-35.09"/>
    </edge>
    <edge id=":gneJ5_3" function="internal">
        <lane id=":gneJ5_3_0" index="0" speed="6.56" length="9.31" shape="1.93,-31.91 -0.64,-31.33 -2.39,-30.11 -3.32,-28.27 -3.43,-25.79"/>
    </edge>
    <edge id=":gneJ5_4" function="internal">
        <lane id=":gneJ5_4_0" index="0" speed="13.89" length="14.78" shape="1.93,-31.91 -12.83,-31.14"/>
    </edge>
    <edge id=":gneJ5_5" function="internal">
        <lane id=":gneJ5_5_0" index="0" speed="7.80" length="6.36" shape="1.93,-31.91 -2.15,-32.13 -4.17,-33.19"/>
    </edge>
    <edge id=":gneJ5_12" function="internal">
        <lane id=":gneJ5_12_0" index="0" speed="7.80" length="8.30" shape="-4.17,-33.19 -5.03,-33.64 -6.69,-36.42 -7.15,-40.48"/>
    </edge>
    <edge id=":gneJ5_6" function="internal">
        <lane id=":gneJ5_6_0" index="0" speed="6.26" length="9.04" shape="-3.95,-40.38 -3.67,-37.88 -2.64,-36.16 -0.87,-35.23 1.65,-35.09"/>
    </edge>
    <edge id=":gneJ5_7" function="internal">
        <lane id=":gneJ5_7_0" index="0" speed="13.89" length="14.62" shape="-3.95,-40.38 -4.01,-36.69 -3.95,-33.08 -3.76,-29.46 -3.43,-25.79"/>
    </edge>
    <edge id=":gneJ5_8" function="internal">
        <lane id=":gneJ5_8_0" index="0" speed="8.20" length="14.47" shape="-3.95,-40.38 -4.61,-36.38 -6.31,-33.51 -9.05,-31.76 -12.83,-31.14"/>
    </edge>
    <edge id=":gneJ5_9" function="internal">
        <lane id=":gneJ5_9_0" index="0" speed="6.75" length="9.47" shape="-12.87,-34.34 -10.44,-34.75 -8.68,-35.91 -7.58,-37.82 -7.15,-40.48"/>
    </edge>
    <edge id=":gneJ5_10" function="internal">
        <lane id=":gneJ5_10_0" index="0" speed="13.89" length="14.54" shape="-12.87,-34.34 1.65,-35.09"/>
    </edge>
    <edge id=":gneJ5_11" function="internal">
        <lane id=":gneJ5_11_0" index="0" speed="8.29" length="5.52" shape="-12.87,-34.34 -9.08,-33.85 -7.60,-33.02"/>
    </edge>
    <edge id=":gneJ5_13" function="internal">
        <lane id=":gneJ5_13_0" index="0" speed="8.29" length="8.73" shape="-7.60,-33.02 -6.25,-32.26 -4.37,-29.57 -3.43,-25.79"/>
    </edge>

    <edge id="-gneE0" from="gneJ1" to="gneJ0" priority="-1">
        <lane id="-gneE0_0" index="0" speed="13.89" length="81.11" shape="91.52,56.08 10.41,56.54"/>
    </edge>
    <edge id="-gneE1" from="edge_4" to="gneJ1" priority="-1">
        <lane id="-gneE1_0" index="0" speed="13.89" length="65.33" shape="171.20,56.58 105.87,56.10"/>
    </edge>
    <edge id="-gneE2" from="gneJ3" to="gneJ1" priority="-1">
        <lane id="-gneE2_0" index="0" speed="13.89" length="86.01" shape="105.24,-38.70 100.52,47.19"/>
    </edge>
    <edge id="-gneE3" from="gneJ5" to="gneJ3" priority="-1">
        <lane id="-gneE3_0" index="0" speed="13.89" length="98.76" shape="1.65,-35.09 100.03,-43.74"/>
    </edge>
    <edge id="-gneE4" from="gneJ5" to="gneJ0" priority="-1">
        <lane id="-gneE4_0" index="0" speed="13.89" length="73.33" shape="-3.43,-25.79 4.26,47.14"/>
    </edge>
    <edge id="-gneE5" from="edge_2" to="gneJ5" priority="-1">
        <lane id="-gneE5_0" index="0" speed="13.89" length="75.15" shape="-88.02,-33.36 -12.87,-34.34"/>
    </edge>
    <edge id="-gneE6" from="edge_3" to="gneJ5" priority="-1">
        <lane id="-gneE6_0" index="0" speed="13.89" length="62.43" shape="-2.03,-102.79 -3.95,-40.38"/>
    </edge>
    <edge id="-gneE7" from="edge_1" to="gneJ0" priority="-1">
        <lane id="-gneE7_0" index="0" speed="13.89" length="80.61" shape="-84.70,49.57 -4.16,53.05"/>
    </edge>
    <edge id="-gneE8" from="edge_0" to="gneJ0" priority="-1">
        <lane id="-gneE8_0" index="0" speed="13.89" length="50.79" shape="-2.92,112.77 1.27,62.15"/>
    </edge>
    <edge id="gneE0" from="gneJ0" to="gneJ1" priority="-1">
        <lane id="gneE0_0" index="0" speed="13.89" length="81.11" shape="10.39,53.34 91.50,52.88"/>
    </edge>
    <edge id="gneE1" from="gneJ1" to="edge_4" priority="-1">
        <lane id="gneE1_0" index="0" speed="13.89" length="65.33" shape="105.89,52.90 171.22,53.38"/>
    </edge>
    <edge id="gneE2" from="gneJ1" to="gneJ3" priority="-1">
        <lane id="gneE2_0" index="0" speed="13.89" length="86.01" shape="97.33,47.01 102.05,-38.87"/>
    </edge>
    <edge id="gneE3" from="gneJ3" to="gneJ5" priority="-1">
        <lane id="gneE3_0" index="0" speed="13.89" length="98.76" shape="100.31,-40.55 1.93,-31.91"/>
    </edge>
    <edge id="gneE4" from="gneJ0" to="gneJ5" priority="-1">
        <lane id="gneE4_0" index="0" speed="13.89" length="73.33" shape="1.07,47.47 -6.62,-25.45"/>
    </edge>
    <edge id="gneE5" from="gneJ5" to="edge_2" priority="-1">
        <lane id="gneE5_0" index="0" speed="13.89" length="75.15" shape="-12.83,-31.14 -87.97,-30.16"/>
    </edge>
    <edge id="gneE6" from="gneJ5" to="edge_3" priority="-1">
        <lane id="gneE6_0" index="0" speed="13.89" length="62.43" shape="-7.15,-40.48 -5.23,-102.89"/>
    </edge>
    <edge id="gneE7" from="gneJ0" to="edge_1" priority="-1">
        <lane id="gneE7_0" index="0" speed="13.89" length="80.61" shape="-4.30,56.24 -84.83,52.77"/>
    </edge>
    <edge id="gneE8" from="gneJ0" to="edge_0" priority="-1">
        <lane id="gneE8_0" index="0" speed="13.89" length="50.79" shape="4.46,62.41 0.27,113.03"/>
    </edge>

    <junction id="edge_0" type="dead_end" x="-1.33" y="112.90" incLanes="gneE8_0" intLanes="" shape="-1.33,112.90 1.86,113.16 -1.33,112.90"/>
    <junction id="edge_1" type="dead_end" x="-84.76" y="51.17" incLanes="gneE7_0" intLanes="" shape="-84.76,51.17 -84.90,54.37 -84.76,51.17"/>
    <junction id="edge_2" type="dead_end" x="-88.00" y="-31.76" incLanes="gneE5_0" intLanes="" shape="-88.00,-31.76 -87.95,-28.56 -88.00,-31.76"/>
    <junction id="edge_3" type="dead_end" x="-3.63" y="-102.84" incLanes="gneE6_0" intLanes="" shape="-3.63,-102.84 -6.83,-102.94 -3.63,-102.84"/>
    <junction id="edge_4" type="dead_end" x="171.21" y="54.98" incLanes="gneE1_0" intLanes="" shape="171.21,54.98 171.23,51.78 171.21,54.98"/>
    <junction id="gneJ0" type="priority" x="3.47" y="54.98" incLanes="-gneE0_0 -gneE4_0 -gneE7_0 -gneE8_0" intLanes=":gneJ0_0_0 :gneJ0_1_0 :gneJ0_12_0 :gneJ0_3_0 :gneJ0_4_0 :gneJ0_5_0 :gneJ0_6_0 :gneJ0_7_0 :gneJ0_13_0 :gneJ0_9_0 :gneJ0_10_0 :gneJ0_11_0" shape="10.42,58.14 10.38,51.74 8.09,51.22 7.23,50.56 6.58,49.63 6.11,48.43 5.85,46.97 -0.52,47.64 -0.73,49.83 -1.20,50.58 -1.92,51.10 -2.89,51.39 -4.10,51.45 -4.37,57.84 -1.97,58.39 -1.17,58.98 -0.62,59.78 -0.34,60.79 -0.32,62.02 6.06,62.55 6.70,60.11 7.33,59.25 8.16,58.64 9.19,58.27">
        <request index="0"  response="000000000000" foes="000100010000" cont="0"/>
        <request index="1"  response="000000000000" foes="111100110000" cont="0"/>
        <request index="2"  response="000011000000" foes="110011110000" cont="1"/>
        <request index="3"  response="000010000000" foes="100010000000" cont="0"/>
        <request index="4"  response="000110000111" foes="100110000111" cont="0"/>
        <request index="5"  response="011110000110" foes="011110000110" cont="0"/>
        <request index="6"  response="000000000000" foes="010000000100" cont="0"/>
        <request index="7"  response="000000000000" foes="110000111100" cont="0"/>
        <request index="8"  response="000000000011" foes="110000110011" cont="1"/>
        <request index="9"  response="000000000010" foes="000000100010" cont="0"/>
        <request index="10" response="000111000110" foes="000111100110" cont="0"/>
        <request index="11" response="000110011110" foes="000110011110" cont="0"/>
    </junction>
    <junction id="gneJ1" type="priority" x="98.52" y="54.44" incLanes="-gneE1_0 -gneE2_0 gneE0_0" intLanes=":gneJ1_0_0 :gneJ1_6_0 :gneJ1_2_0 :gneJ1_3_0 :gneJ1_4_0 :gneJ1_5_0" shape="105.86,57.70 105.90,51.30 103.71,50.84 102.96,50.28 102.44,49.50 102.17,48.50 102.12,47.28 95.73,46.92 95.16,49.34 94.55,50.18 93.74,50.79 92.72,51.16 91.49,51.28 91.53,57.68">
        <request index="0" response="000000" foes="001000" cont="0"/>
        <request index="1" response="110000" foes="111000" cont="1"/>
        <request index="2" response="100000" foes="100000" cont="0"/>
        <request index="3" response="100011" foes="100011" cont="0"/>
        <request index="4" response="000000" foes="000010" cont="0"/>
        <request index="5" response="000000" foes="001110" cont="0"/>
    </junction>
    <junction id="gneJ3" type="priority" x="103.85" y="-42.47" incLanes="-gneE3_0 gneE2_0" intLanes=":gneJ3_0_0 :gneJ3_1_0" shape="99.89,-45.33 100.45,-38.96 106.84,-38.61 106.76,-40.84 106.25,-42.63 105.31,-43.98 103.93,-44.87 102.13,-45.33">
        <request index="0" response="00" foes="00" cont="0"/>
        <request index="1" response="00" foes="00" cont="0"/>
    </junction>
    <junction id="gneJ5" type="priority" x="-5.79" y="-32.83" incLanes="gneE4_0 gneE3_0 -gneE6_0 -gneE5_0" intLanes=":gneJ5_0_0 :gneJ5_1_0 :gneJ5_2_0 :gneJ5_3_0 :gneJ5_4_0 :gneJ5_12_0 :gneJ5_6_0 :gneJ5_7_0 :gneJ5_8_0 :gneJ5_9_0 :gneJ5_10_0 :gneJ5_13_0" shape="-8.21,-25.28 -1.84,-25.95 -1.60,-28.21 -1.08,-29.03 -0.29,-29.66 0.76,-30.09 2.07,-30.31 1.51,-36.69 -0.69,-36.94 -1.45,-37.42 -1.98,-38.15 -2.28,-39.12 -2.35,-40.34 -8.75,-40.53 -9.27,-38.01 -9.86,-37.12 -10.65,-36.48 -11.66,-36.08 -12.89,-35.94 -12.81,-29.54 -10.45,-29.09 -9.59,-28.50 -8.92,-27.67 -8.46,-26.60">
        <request index="0"  response="000000010000" foes="000100010000" cont="0"/>
        <request index="1"  response="111000110000" foes="111100110000" cont="0"/>
        <request index="2"  response="110011110000" foes="110011110000" cont="0"/>
        <request index="3"  response="000000000000" foes="100010000000" cont="0"/>
        <request index="4"  response="000000000000" foes="100110000111" cont="0"/>
        <request index="5"  response="011000000000" foes="011110000110" cont="1"/>
        <request index="6"  response="010000000000" foes="010000000100" cont="0"/>
        <request index="7"  response="110000111000" foes="110000111100" cont="0"/>
        <request index="8"  response="110000110011" foes="110000110011" cont="0"/>
        <request index="9"  response="000000000000" foes="000000100010" cont="0"/>
        <request index="10" response="000000000000" foes="000111100110" cont="0"/>
        <request index="11" response="000000011000" foes="000110011110" cont="1"/>
    </junction>

    <junction id=":gneJ0_12_0" type="internal" x="4.76" y="54.83" incLanes=":gneJ0_2_0 -gneE7_0" intLanes=":gneJ0_4_0 :gneJ0_5_0 :gneJ0_6_0 :gneJ0_7_0 :gneJ0_10_0 :gneJ0_11_0"/>
    <junction id=":gneJ0_13_0" type="internal" x="1.39" y="54.76" incLanes=":gneJ0_8_0 -gneE0_0" intLanes=":gneJ0_0_0 :gneJ0_1_0 :gneJ0_4_0 :gneJ0_5_0 :gneJ0_10_0 :gneJ0_11_0"/>
    <junction id=":gneJ1_6_0" type="internal" x="100.33" y="54.49" incLanes=":gneJ1_1_0 gneE0_0" intLanes=":gneJ1_3_0 :gneJ1_4_0 :gneJ1_5_0"/>
    <junction id=":gneJ5_12_0" type="internal" x="-4.17" y="-33.19" incLanes=":gneJ5_5_0 -gneE5_0" intLanes=":gneJ5_1_0 :gneJ5_2_0 :gneJ5_7_0 :gneJ5_8_0 :gneJ5_9_0 :gneJ5_10_0"/>
    <junction id=":gneJ5_13_0" type="internal" x="-7.60" y="-33.02" incLanes=":gneJ5_11_0 gneE3_0" intLanes=":gneJ5_1_0 :gneJ5_2_0 :gneJ5_3_0 :gneJ5_4_0 :gneJ5_7_0 :gneJ5_8_0"/>

    <connection from="-gneE0" to="gneE8" fromLane="0" toLane="0" via=":gneJ0_0_0" dir="r" state="M"/>
    <connection from="-gneE0" to="gneE7" fromLane="0" toLane="0" via=":gneJ0_1_0" dir="s" state="M"/>
    <connection from="-gneE0" to="gneE4" fromLane="0" toLane="0" via=":gneJ0_2_0" dir="l" state="m"/>
    <connection from="-gneE1" to="-gneE0" fromLane="0" toLane="0" via=":gneJ1_0_0" dir="s" state="M"/>
    <connection from="-gneE1" to="gneE2" fromLane="0" toLane="0" via=":gneJ1_1_0" dir="l" state="m"/>
    <connection from="-gneE2" to="gneE1" fromLane="0" toLane="0" via=":gneJ1_2_0" dir="r" state="m"/>
    <connection from="-gneE2" to="-gneE0" fromLane="0" toLane="0" via=":gneJ1_3_0" dir="l" state="m"/>
    <connection from="-gneE3" to="-gneE2" fromLane="0" toLane="0" via=":gneJ3_0_0" dir="l" state="M"/>
    <connection from="-gneE4" to="gneE0" fromLane="0" toLane="0" via=":gneJ0_3_0" dir="r" state="m"/>
    <connection from="-gneE4" to="gneE8" fromLane="0" toLane="0" via=":gneJ0_4_0" dir="s" state="m"/>
    <connection from="-gneE4" to="gneE7" fromLane="0" toLane="0" via=":gneJ0_5_0" dir="l" state="m"/>
    <connection from="-gneE5" to="gneE6" fromLane="0" toLane="0" via=":gneJ5_9_0" dir="r" state="M"/>
    <connection from="-gneE5" to="-gneE3" fromLane="0" toLane="0" via=":gneJ5_10_0" dir="s" state="M"/>
    <connection from="-gneE5" to="-gneE4" fromLane="0" toLane="0" via=":gneJ5_11_0" dir="l" state="m"/>
    <connection from="-gneE6" to="-gneE3" fromLane="0" toLane="0" via=":gneJ5_6_0" dir="r" state="m"/>
    <connection from="-gneE6" to="-gneE4" fromLane="0" toLane="0" via=":gneJ5_7_0" dir="s" state="m"/>
    <connection from="-gneE6" to="gneE5" fromLane="0" toLane="0" via=":gneJ5_8_0" dir="l" state="m"/>
    <connection from="-gneE7" to="gneE4" fromLane="0" toLane="0" via=":gneJ0_6_0" dir="r" state="M"/>
    <connection from="-gneE7" to="gneE0" fromLane="0" toLane="0" via=":gneJ0_7_0" dir="s" state="M"/>
    <connection from="-gneE7" to="gneE8" fromLane="0" toLane="0" via=":gneJ0_8_0" dir="l" state="m"/>
    <connection from="-gneE8" to="gneE7" fromLane="0" toLane="0" via=":gneJ0_9_0" dir="r" state="m"/>
    <connection from="-gneE8" to="gneE4" fromLane="0" toLane="0" via=":gneJ0_10_0" dir="s" state="m"/>
    <connection from="-gneE8" to="gneE0" fromLane="0" toLane="0" via=":gneJ0_11_0" dir="l" state="m"/>
    <connection from="gneE0" to="gneE2" fromLane="0" toLane="0" via=":gneJ1_4_0" dir="r" state="M"/>
    <connection from="gneE0" to="gneE1" fromLane="0" toLane="0" via=":gneJ1_5_0" dir="s" state="M"/>
    <connection from="gneE2" to="gneE3" fromLane="0" toLane="0" via=":gneJ3_1_0" dir="r" state="M"/>
    <connection from="gneE3" to="-gneE4" fromLane="0" toLane="0" via=":gneJ5_3_0" dir="r" state="M"/>
    <connection from="gneE3" to="gneE5" fromLane="0" toLane="0" via=":gneJ5_4_0" dir="s" state="M"/>
    <connection from="gneE3" to="gneE6" fromLane="0" toLane="0" via=":gneJ5_5_0" dir="l" state="m"/>
    <connection from="gneE4" to="gneE5" fromLane="0" toLane="0" via=":gneJ5_0_0" dir="r" state="m"/>
    <connection from="gneE4" to="gneE6" fromLane="0" toLane="0" via=":gneJ5_1_0" dir="s" state="m"/>
    <connection from="gneE4" to="-gneE3" fromLane="0" toLane="0" via=":gneJ5_2_0" dir="l" state="m"/>

    <connection from=":gneJ0_0" to="gneE8" fromLane="0" toLane="0" dir="r" state="M"/>
    <connection from=":gneJ0_1" to="gneE7" fromLane="0" toLane="0" dir="s" state="M"/>
    <connection from=":gneJ0_2" to="gneE4" fromLane="0" toLane="0" via=":gneJ0_12_0" dir="l" state="m"/>
    <connection from=":gneJ0_12" to="gneE4" fromLane="0" toLane="0" dir="l" state="M"/>
    <connection from=":gneJ0_3" to="gneE0" fromLane="0" toLane="0" dir="r" state="M"/>
    <connection from=":gneJ0_4" to="gneE8" fromLane="0" toLane="0" dir="s" state="M"/>
    <connection from=":gneJ0_5" to="gneE7" fromLane="0" toLane="0" dir="l" state="M"/>
    <connection from=":gneJ0_6" to="gneE4" fromLane="0" toLane="0" dir="r" state="M"/>
    <connection from=":gneJ0_7" to="gneE0" fromLane="0" toLane="0" dir="s" state="M"/>
    <connection from=":gneJ0_8" to="gneE8" fromLane="0" toLane="0" via=":gneJ0_13_0" dir="l" state="m"/>
    <connection from=":gneJ0_13" to="gneE8" fromLane="0" toLane="0" dir="l" state="M"/>
    <connection from=":gneJ0_9" to="gneE7" fromLane="0" toLane="0" dir="r" state="M"/>
    <connection from=":gneJ0_10" to="gneE4" fromLane="0" toLane="0" dir="s" state="M"/>
    <connection from=":gneJ0_11" to="gneE0" fromLane="0" toLane="0" dir="l" state="M"/>
    <connection from=":gneJ1_0" to="-gneE0" fromLane="0" toLane="0" dir="s" state="M"/>
    <connection from=":gneJ1_1" to="gneE2" fromLane="0" toLane="0" via=":gneJ1_6_0" dir="l" state="m"/>
    <connection from=":gneJ1_6" to="gneE2" fromLane="0" toLane="0" dir="l" state="M"/>
    <connection from=":gneJ1_2" to="gneE1" fromLane="0" toLane="0" dir="r" state="M"/>
    <connection from=":gneJ1_3" to="-gneE0" fromLane="0" toLane="0" dir="l" state="M"/>
    <connection from=":gneJ1_4" to="gneE2" fromLane="0" toLane="0" dir="r" state="M"/>
    <connection from=":gneJ1_5" to="gneE1" fromLane="0" toLane="0" dir="s" state="M"/>
    <connection from=":gneJ3_0" to="-gneE2" fromLane="0" toLane="0" dir="l" state="M"/>
    <connection from=":gneJ3_1" to="gneE3" fromLane="0" toLane="0" dir="r" state="M"/>
    <connection from=":gneJ5_0" to="gneE5" fromLane="0" toLane="0" dir="r" state="M"/>
    <connection from=":gneJ5_1" to="gneE6" fromLane="0" toLane="0" dir="s" state="M"/>
    <connection from=":gneJ5_2" to="-gneE3" fromLane="0" toLane="0" dir="l" state="M"/>
    <connection from=":gneJ5_3" to="-gneE4" fromLane="0" toLane="0" dir="r" state="M"/>
    <connection from=":gneJ5_4" to="gneE5" fromLane="0" toLane="0" dir="s" state="M"/>
    <connection from=":gneJ5_5" to="gneE6" fromLane="0" toLane="0" via=":gneJ5_12_0" dir="l" state="m"/>
    <connection from=":gneJ5_12" to="gneE6" fromLane="0" toLane="0" dir="l" state="M"/>
    <connection from=":gneJ5_6" to="-gneE3" fromLane="0" toLane="0" dir="r" state="M"/>
    <connection from=":gneJ5_7" to="-gneE4" fromLane="0" toLane="0" dir="s" state="M"/>
    <connection from=":gneJ5_8" to="gneE5" fromLane="0" toLane="0" dir="l" state="M"/>
    <connection from=":gneJ5_9" to="gneE6" fromLane="0" toLane="0" dir="r" state="M"/>
    <connection from=":gneJ5_10" to="-gneE3" fromLane="0" toLane="0" dir="s" state="M"/>
    <connection from=":gneJ5_11" to="-gneE4" fromLane="0" toLane="0" via=":gneJ5_13_0" dir="l" state="m"/>
    <connection from=":gneJ5_13" to="-gneE4" fromLane="0" toLane="0" dir="l" state="M"/>

</net>
