<configuration>
    <input>
        <net-file value="traffic_network_1.net.xml"/>
        <route-files value="traffic_network_1.rou.xml"/>
        <gui-settings-file value="traffic_network_1.settings.xml"/>
    </input>

    <time>
        <begin value="0"/>
        <end value="5000"/>
    </time>
</configuration>